Circuit: * C:\Users\Cahco\Desktop\Semaforo charlas\Componentes\ltSpice\Draft1.asc

Direct Newton iteration for .op point succeeded.

Date: Mon Aug 25 21:52:54 2014
Total elapsed time: 0.135 seconds.

tnom = 27
temp = 27
method = modified trap
totiter = 8304
traniter = 8298
tranpoints = 3572
accept = 3019
rejected = 553
matrix size = 13
fillins = 0
solver = Normal
Matrix Compiler1: 852 bytes object code size  0.6/0.5/[0.3]
Matrix Compiler2: off  [0.3]/0.6/0.5


